grid_simulations/tests/Result_no_control/output_current_14.csv
# Result_no_control/output_current_14.csv run at 2000-01-01 14:00:00 EST on 907 links
link_name,currA_mag,currA_angle,currB_mag,currB_angle,currC_mag,currC_angle
Source_Impedance,25.842544,-0.360758,20.937670,3.764323,22.507148,1.895088
TR1,25.842544,-0.360758,20.937670,3.764323,22.507148,1.895088
LINE1,714.302509,-0.835028,637.841385,3.317688,472.332796,1.245498
LINE2,714.302509,-0.835028,637.841385,3.317688,472.332796,1.245498
LINE3,714.302509,-0.835028,637.841385,3.317688,472.332796,1.245498
LINE4,714.302509,-0.835028,637.841385,3.317688,472.332796,1.245498
LINE5,714.302509,-0.835028,637.841385,3.317688,472.332796,1.245498
LINE6,714.302509,-0.835028,637.841385,3.317688,472.332796,1.245498
LINE7,714.302509,-0.835028,637.841385,3.317688,472.332796,1.245498
LINE8,714.302509,-0.835028,637.841385,3.317688,472.332796,1.245498
LINE9,714.302509,-0.835028,637.841385,3.317688,472.332796,1.245498
LINE10,714.302509,-0.835028,637.841385,3.317688,472.332796,1.245498
LINE11,714.302509,-0.835028,637.841385,3.317688,472.332796,1.245498
LINE12,714.302509,-0.835028,637.841385,3.317688,472.332796,1.245498
LINE13,714.302509,-0.835028,637.841385,3.317688,472.332796,1.245498
LINE14,714.302509,-0.835028,637.841385,3.317688,472.332796,1.245498
LINE15,0.000000,-1.485071,0.000000,4.687457,0.000000,1.555239
LINE16,714.302509,-0.835028,637.841385,3.317688,472.332796,1.245498
LINE17,0.000000,4.687457,0.000000,4.687457,0.000000,1.545864
LINE18,714.302509,-0.835028,637.841385,3.317688,472.332796,1.245498
LINE19,0.000000,-1.132081,0.000000,4.687457,0.000000,1.545864
LINE20,714.302509,-0.835028,637.841385,3.317688,472.332796,1.245498
LINE21,0.000000,-0.612935,0.000000,3.580308,0.000000,-1.564488
LINE22,714.302509,-0.835028,637.841385,3.317688,472.332796,1.245498
LINE23,0.000000,-0.612935,0.000000,3.281809,0.000000,1.556281
LINE24,714.302509,-0.835028,637.841385,3.317688,472.332796,1.245498
LINE25,0.000000,-0.583531,0.000000,3.675260,0.000000,-0.024932
LINE26,61.262105,-0.861759,0.000000,-1.497374,0.000000,0.791747
LINE27,653.064342,-0.832521,637.841385,3.317688,472.332796,1.245498
LINE28,0.000000,-0.316389,0.000000,4.099454,0.000000,1.577104
LINE29,30.627956,-0.861784,0.000000,0.206751,0.000000,1.710849
LINE30,30.634149,-0.861734,0.000000,-1.462725,0.000000,0.572052
LINE31,653.064342,-0.832521,637.841385,3.317688,472.332796,1.245498
LINE32,0.000000,-0.367956,0.000000,3.992719,0.000000,1.600497
LINE33,30.627956,-0.861784,0.000000,3.198343,0.000000,1.063616
LINE34,30.634149,-0.861734,0.000000,-1.231122,0.000000,-1.557462
LINE35,0.000000,2.893185,62.126961,3.321362,0.000000,-1.524571
LINE36,653.064342,-0.832521,575.714888,3.317292,472.332796,1.245498
LINE37,0.000000,-0.308726,0.000000,4.099454,0.000000,1.592705
LINE38,30.634149,-0.861734,0.000000,4.693010,0.000000,1.551099
LINE39,0.000000,2.926169,31.064155,3.321367,0.000000,4.226389
LINE40,0.000000,2.912446,31.062806,3.321356,0.000000,1.486730
LINE41,653.064342,-0.832521,575.714888,3.317292,472.332796,1.245498
LINE42,0.000000,-0.918180,0.000000,-0.202974,0.000000,4.143604
LINE43,0.000000,-0.269911,0.000000,4.687457,0.000000,1.639341
LINE44,30.634149,-0.861734,0.000000,-1.095268,0.000000,1.544684
LINE45,0.000000,2.822571,31.064155,3.321367,0.000000,4.642524
LINE46,0.000000,2.333488,31.062806,3.321356,0.000000,-1.401434
LINE47,653.064342,-0.832521,575.714888,3.317292,472.332796,1.245498
LINE48,0.000000,-1.032813,0.000000,-0.218120,0.000000,3.957457
LINE49,0.000000,-0.024932,0.000000,3.361639,0.000000,3.116661
LINE50,30.634149,-0.861734,0.000000,-0.324808,0.000000,1.436835
LINE51,0.000000,2.819018,31.064155,3.321367,0.000000,-1.550554
LINE52,653.064342,-0.832521,575.714888,3.317292,472.332796,1.245498
LINE53,0.000000,3.365850,0.000000,3.305628,0.000000,4.529218
LINE54,0.000000,-0.918840,0.000000,-0.060760,0.000000,4.406960
LINE55,0.000000,-0.269911,0.000000,3.511452,0.000000,3.116661
LINE56,30.634149,-0.861734,0.000000,0.454070,0.000000,1.520641
LINE57,0.000000,2.768091,31.064155,3.321367,0.000000,1.472826
LINE58,653.064342,-0.832521,575.714888,3.317292,472.332796,1.245498
LINE59,0.000000,3.314941,0.000000,3.044949,0.000000,4.660591
LINE60,0.000000,-0.835959,0.000000,-0.166225,0.000000,4.374334
LINE61,0.000000,0.074737,0.000000,3.497167,0.000000,4.532460
LINE62,30.634149,-0.861734,0.000000,0.831692,0.000000,1.500202
LINE63,0.000000,2.747156,31.064155,3.321367,0.000000,4.468309
LINE64,588.909064,-0.830633,575.714888,3.317292,472.332796,1.245498
LINE65,64.165957,-0.849846,0.000000,2.818734,0.000000,4.708605
LINE66,0.000000,3.721789,0.000000,3.533185,0.000000,4.612098
LINE67,0.000000,-0.624363,0.000000,-0.408053,0.000000,4.460689
LINE68,0.000000,-0.024932,0.000000,3.902059,0.000000,4.593980
LINE69,30.634149,-0.861734,0.000000,2.550275,0.000000,4.388524
LINE70,0.000000,2.426810,31.064155,3.321367,0.000000,-1.513976
LINE71,588.909064,-0.830633,575.714888,3.317292,472.332796,1.245498
LINE72,32.082979,-0.849846,0.000000,1.910906,0.000000,4.671039
LINE73,32.082979,-0.849846,0.000000,1.913697,0.000000,4.706159
LINE74,0.000000,4.604977,0.000000,3.288861,0.000000,2.389642
LINE75,0.000000,-0.949579,0.000000,0.053356,0.000000,4.567644
LINE76,0.000000,0.099423,0.000000,3.985200,0.000000,4.640616
LINE77,0.000000,3.377939,31.064155,3.321367,0.000000,1.287994
LINE78,588.909064,-0.830633,575.714888,3.317292,472.332796,1.245498
LINE79,0.000000,0.649660,0.000000,3.297196,0.000000,0.858270
LINE80,0.000000,-0.891959,0.000000,0.029469,0.000000,4.524342
LINE81,0.000000,0.085725,0.000000,3.978831,0.000000,4.639417
LINE82,0.000000,0.143248,31.064155,3.321367,0.000000,4.343526
LINE83,588.909064,-0.830633,575.714888,3.317292,472.332796,1.245498
LINE84,0.000000,1.694525,0.000000,2.983719,0.000000,-0.864475
LINE85,0.000000,-0.916657,0.000000,0.025620,0.000000,4.511395
LINE86,0.000000,0.002839,0.000000,3.942038,0.000000,4.609490
LINE87,588.909064,-0.830633,575.714888,3.317292,472.332796,1.245498
LINE88,0.000000,2.672987,0.000000,-0.720716,0.000000,0.165127
LINE89,0.000000,-0.896488,0.000000,-0.035351,0.000000,4.512085
LINE90,0.000000,0.058209,0.000000,3.849476,0.000000,4.472099
LINE91,588.909064,-0.830633,575.714888,3.317292,472.332796,1.245498
LINE92,0.000000,-0.825118,0.000000,0.162787,0.000000,4.634932
LINE93,0.000000,-0.024932,0.000000,3.580308,0.000000,3.116661
LINE94,588.909064,-0.830633,575.714888,3.317292,472.332796,1.245498
LINE95,0.000000,-0.958051,0.000000,-0.054953,0.000000,4.656377
LINE96,0.000000,2.653013,0.000000,0.000000,0.000000,4.593980
LINE97,588.909064,-0.830633,575.714888,3.317292,472.332796,1.245498
LINE98,0.000000,0.681295,0.000000,-0.373806,0.000000,-1.170880
LINE99,0.000000,0.000000,0.000000,3.580308,0.000000,3.116661
LINE100,588.909064,-0.830633,575.714888,3.317292,472.332796,1.245498
LINE101,0.000000,0.649149,0.000000,4.335662,0.000000,-1.243648
LINE102,0.000000,0.000000,0.000000,0.000000,0.000000,0.000000
LINE103,32.598141,-0.845867,97.411222,3.322288,62.045049,1.242494
LINE104,556.314927,-0.829740,478.305129,3.316274,410.288070,1.245953
LINE105,0.000000,0.619922,0.000000,-0.735492,0.000000,-1.366876
LINE106,32.598141,-0.845867,97.411222,3.322288,62.045049,1.242494
LINE107,556.314927,-0.829740,478.305129,3.316274,410.288070,1.245953
LINE108,0.000000,0.376336,0.000000,-0.759724,0.000000,-1.111566
LINE109,32.598141,-0.845867,97.411222,3.322288,62.045049,1.242494
LINE110,556.314927,-0.829740,478.305129,3.316274,410.288070,1.245953
LINE111,0.000000,0.360593,0.000000,-0.437264,0.000000,-1.183609
LINE112,32.598141,-0.845867,97.411222,3.322288,62.045049,1.242494
LINE113,556.314927,-0.829740,478.305129,3.316274,410.288070,1.245953
LINE114,0.000000,0.362849,0.000000,-0.451819,0.000000,-1.182388
LINE115,32.598141,-0.845867,97.411222,3.322288,62.045049,1.242494
LINE116,32.929578,-0.843743,65.429442,3.322564,62.368521,1.243903
LINE117,523.388780,-0.828859,412.877186,3.315278,347.919703,1.246320
LINE118,0.000000,0.334395,0.000000,-0.286377,0.000000,-1.198850
LINE119,32.598141,-0.845867,97.411222,3.322288,62.045049,1.242494
LINE120,0.000000,2.951512,0.000000,3.199802,0.000000,4.656217
LINE121,32.929578,-0.843743,65.429442,3.322564,62.368521,1.243903
LINE122,523.388780,-0.828859,412.877186,3.315278,347.919703,1.246320
LINE123,0.000000,0.402920,0.000000,-0.153427,0.000000,-1.142473
LINE124,32.598141,-0.845867,97.411222,3.322288,62.045049,1.242494
LINE125,0.000000,2.893184,0.000000,2.951512,0.000000,4.695269
LINE126,32.929578,-0.843743,65.429442,3.322564,62.368521,1.243903
LINE127,523.388780,-0.828859,412.877186,3.315278,347.919703,1.246320
LINE128,0.000000,0.248132,0.000000,1.026383,0.000000,-1.027577
LINE129,32.598141,-0.845867,97.411222,3.322288,62.045049,1.242494
LINE130,0.000000,2.871682,0.000000,3.116661,0.000000,4.640616
LINE131,32.929578,-0.843743,0.000000,-0.936211,0.000000,1.573275
LINE132,0.000000,1.112236,65.429442,3.322564,62.368521,1.243903
LINE133,523.388780,-0.828859,412.877186,3.315278,347.919703,1.246320
LINE134,0.000000,0.332365,0.000000,0.242125,0.000000,-1.072358
LINE135,32.598141,-0.845867,97.411222,3.322288,62.045049,1.242494
LINE136,0.000000,2.893184,0.000000,3.580308,0.000000,4.703081
LINE137,32.929578,-0.843743,0.000000,-0.967601,0.000000,1.572327
LINE138,0.000000,1.117392,65.429442,3.322564,62.368521,1.243903
LINE139,523.388780,-0.828859,412.877186,3.315278,347.919703,1.246320
LINE140,0.000000,0.356472,0.000000,-0.436679,0.000000,-1.073251
LINE141,32.598141,-0.845867,97.411222,3.322288,62.045049,1.242494
LINE142,0.000000,2.964011,0.000000,3.580308,0.000000,1.545864
LINE143,32.929578,-0.843743,0.000000,-1.052975,0.000000,1.562246
LINE144,0.000000,1.106597,65.429442,3.322564,62.368521,1.243903
LINE145,523.388780,-0.828859,412.877186,3.315278,347.919703,1.246320
LINE146,0.000000,0.301785,0.000000,0.394188,0.000000,-1.116045
LINE147,32.598141,-0.845867,97.411222,3.322288,62.045049,1.242494
LINE148,0.000000,3.016992,0.000000,3.475431,0.000000,4.671833
LINE149,32.929578,-0.843743,0.000000,-0.803222,0.000000,1.568764
LINE150,0.000000,1.094337,0.000000,2.594842,62.368521,1.243903
LINE151,0.000000,2.757041,65.429442,3.322564,0.000000,4.694795
LINE152,523.388780,-0.828859,412.877186,3.315278,347.919703,1.246320
LINE153,0.000000,0.220034,0.000000,-0.178707,0.000000,4.705419
LINE154,32.598141,-0.845867,97.411222,3.322288,62.045049,1.242494
LINE155,0.000000,3.179080,0.000000,3.475431,0.000000,0.000000
LINE156,32.929578,-0.843743,0.000000,-0.780782,0.000000,1.591101
LINE157,0.000000,1.095193,0.000000,2.600390,62.368521,1.243903
LINE158,0.000000,2.825501,65.429442,3.322564,0.000000,4.694695
LINE159,523.388780,-0.828859,412.877186,3.315278,347.919703,1.246320
LINE160,0.000000,-0.194415,0.000000,-1.094366,0.000000,2.986388
LINE161,0.000000,3.071196,32.388872,3.322075,0.000000,4.659654
LINE162,32.598141,-0.845867,65.022352,3.322394,62.045049,1.242494
LINE163,0.000000,3.033520,0.000000,3.580308,0.000000,-1.517762
LINE164,32.929578,-0.843743,0.000000,-0.769214,0.000000,1.598498
LINE165,0.000000,1.086684,0.000000,2.589411,62.368521,1.243903
LINE166,0.000000,2.855391,65.429442,3.322564,0.000000,4.696377
LINE167,523.388780,-0.828859,412.877186,3.315278,347.919703,1.246320
LINE168,0.000000,3.688722,0.000000,0.295159,0.000000,-0.067082
LINE169,0.000000,3.248727,32.388872,3.322075,0.000000,4.694326
LINE170,32.598141,-0.845867,65.022352,3.322394,62.045049,1.242494
LINE171,0.000000,2.871682,0.000000,3.361639,0.000000,-1.548888
LINE172,32.929578,-0.843743,0.000000,-0.711516,0.000000,1.587715
LINE173,0.000000,1.189958,0.000000,2.539861,0.000000,-1.493700
LINE174,0.000000,-0.824955,0.000000,4.386315,62.368521,1.243903
LINE175,0.000000,2.828233,65.429442,3.322564,0.000000,4.692349
LINE176,523.388780,-0.828859,412.877186,3.315278,347.919703,1.246320
LINE177,0.000000,2.217219,32.388872,3.322075,0.000000,-1.424537
LINE178,32.598141,-0.845867,65.022352,3.322394,0.000000,1.332344
LINE179,0.000000,2.110351,0.000000,3.410217,62.045049,1.242494
LINE180,0.000000,2.951512,0.000000,3.438411,0.000000,-1.486786
LINE181,32.929578,-0.843743,0.000000,-0.607256,0.000000,1.593422
LINE182,0.000000,1.147135,0.000000,2.533677,0.000000,-1.490426
LINE183,0.000000,-0.802682,0.000000,4.256580,62.368521,1.243903
LINE184,0.000000,2.967731,65.429442,3.322564,0.000000,4.688532
LINE185,523.388780,-0.828859,412.877186,3.315278,347.919703,1.246320
LINE186,32.598141,-0.845867,65.022352,3.322394,0.000000,1.568154
LINE187,0.000000,2.160605,0.000000,3.403110,62.045049,1.242494
LINE188,0.000000,0.000000,0.000000,3.580308,0.000000,-1.564488
LINE189,32.929578,-0.843743,0.000000,-0.636519,0.000000,1.590278
LINE190,0.000000,2.139437,0.000000,-0.407648,0.000000,4.079811
LINE191,0.000000,1.161723,0.000000,2.639703,0.000000,-1.409236
LINE192,0.000000,-0.704489,0.000000,4.132162,62.368521,1.243903
LINE193,0.000000,2.872633,65.429442,3.322564,0.000000,4.688552
LINE194,523.388780,-0.828859,412.877186,3.315278,347.919703,1.246320
LINE195,32.598141,-0.845867,65.022352,3.322394,0.000000,1.328964
LINE196,0.000000,2.426950,0.000000,0.667598,31.019471,1.242469
LINE197,0.000000,2.072138,0.000000,3.328471,31.025577,1.242518
LINE198,0.000000,3.116661,0.000000,-0.024932,0.000000,1.608283
LINE199,32.929578,-0.843743,0.000000,-0.627571,0.000000,1.582771
LINE200,0.000000,-0.329997,0.000000,1.486384,0.000000,3.769930
LINE201,0.000000,1.338995,0.000000,2.575614,0.000000,-1.219104
LINE202,0.000000,-0.724625,0.000000,4.294446,62.368521,1.243903
LINE203,0.000000,2.858409,65.429442,3.322564,0.000000,4.689917
LINE204,523.388780,-0.828859,412.877186,3.315278,347.919703,1.246320
LINE205,32.598141,-0.845867,0.000000,-0.495804,0.000000,4.033306
LINE206,0.000000,2.997753,65.022352,3.322394,0.000000,1.769284
LINE207,0.000000,3.212936,0.000000,0.368054,31.019471,1.242469
LINE208,0.000000,2.369167,0.000000,3.642951,31.025577,1.242518
LINE209,0.000000,2.653013,0.000000,-0.488580,0.000000,3.116661
LINE210,32.929578,-0.843743,0.000000,-0.651399,0.000000,1.594414
LINE211,0.000000,1.193399,0.000000,2.520569,0.000000,-1.189101
LINE212,0.000000,-1.027399,0.000000,4.311859,62.368521,1.243903
LINE213,0.000000,2.925923,65.429442,3.322564,0.000000,4.696284
LINE214,523.388780,-0.828859,412.877186,3.315278,347.919703,1.246320
LINE215,32.598141,-0.845867,0.000000,3.291844,0.000000,1.933801
LINE216,0.000000,3.321090,65.022352,3.322394,0.000000,2.581828
LINE217,0.000000,0.031232,0.000000,3.392612,31.025577,1.242518
LINE218,0.000000,0.000000,0.000000,0.000000,0.000000,-0.024932
LINE219,32.929578,-0.843743,0.000000,-0.599007,0.000000,1.596123
LINE220,0.000000,1.153449,0.000000,2.768720,0.000000,-1.033539
LINE221,0.000000,-0.911409,0.000000,4.540537,62.368521,1.243903
LINE222,0.000000,2.883133,65.429442,3.322564,0.000000,4.687300
LINE223,523.388780,-0.828859,412.877186,3.315278,347.919703,1.246320
LINE224,32.598141,-0.845867,0.000000,0.588345,0.000000,1.583861
LINE225,0.000000,4.412965,65.022352,3.322394,0.000000,3.280331
LINE226,0.000000,-0.294393,0.000000,2.936550,31.025577,1.242518
LINE227,32.929578,-0.843743,0.000000,-0.513786,0.000000,1.572179
LINE228,0.000000,0.212549,0.000000,2.854558,0.000000,-1.016327
LINE229,0.000000,-0.957511,0.000000,-1.444088,62.368521,1.243903
LINE230,0.000000,2.842306,65.429442,3.322564,0.000000,4.694473
LINE231,523.388780,-0.828859,412.877186,3.315278,347.919703,1.246320
LINE232,0.000000,-0.342790,65.022352,3.322394,0.000000,1.540899
LINE233,0.000000,0.077582,0.000000,2.456715,0.000000,2.186459
LINE234,0.000000,-0.400882,0.000000,3.131616,31.025577,1.242518
LINE235,32.929578,-0.843743,0.000000,-0.715960,0.000000,1.636333
LINE236,0.000000,0.304809,0.000000,2.938781,0.000000,-1.045882
LINE237,0.000000,-0.839640,0.000000,4.545606,62.368521,1.243903
LINE238,0.000000,2.778245,65.429442,3.322564,0.000000,4.692169
LINE239,523.388780,-0.828859,412.877186,3.315278,347.919703,1.246320
LINE240,0.000000,-0.125359,65.022352,3.322394,0.000000,1.523218
LINE241,0.000000,-0.679045,0.000000,2.764894,31.025577,1.242518
LINE242,32.929578,-0.843743,0.000000,4.555519,0.000000,1.563799
LINE243,0.000000,0.048077,0.000000,2.950762,0.000000,-0.692163
LINE244,0.000000,-0.832907,0.000000,4.503024,62.368521,1.243903
LINE245,0.000000,2.794532,65.429442,3.322564,0.000000,4.697149
LINE246,523.388780,-0.828859,412.877186,3.315278,347.919703,1.246320
LINE247,0.000000,3.907876,32.511176,3.322394,0.000000,1.369292
LINE248,0.000000,3.907876,32.511176,3.322394,0.000000,1.369292
LINE249,0.000000,-0.663082,0.000000,1.595425,31.025577,1.242518
LINE250,32.929578,-0.843743,0.000000,-0.538204,0.000000,1.598686
LINE251,0.000000,-0.283182,0.000000,2.809657,0.000000,-1.034809
LINE252,0.000000,-0.887591,0.000000,-1.530909,62.368521,1.243903
LINE253,0.000000,2.825196,65.429442,3.322564,0.000000,4.694960
LINE254,33.672092,-0.840531,0.000000,-0.186217,0.000000,-1.568818
LINE255,489.719140,-0.828057,412.877186,3.315278,347.919703,1.246320
LINE256,0.000000,-1.140759,0.000000,3.905970,31.025577,1.242518
LINE257,32.929578,-0.843743,0.000000,-0.315280,0.000000,1.609013
LINE258,0.000000,-0.434385,0.000000,2.898428,0.000000,-1.091938
LINE259,0.000000,-0.921841,0.000000,-1.476460,62.368521,1.243903
LINE260,0.000000,2.847776,65.429442,3.322564,0.000000,4.711067
LINE261,33.672092,-0.840531,0.000000,-0.180875,0.000000,4.711454
LINE262,489.719140,-0.828057,412.877186,3.315278,347.919703,1.246320
LINE263,0.000000,2.401893,0.000000,3.004630,31.025577,1.242518
LINE264,32.929578,-0.843743,0.000000,3.592548,0.000000,4.565326
LINE265,0.000000,-0.994838,0.000000,3.054150,0.000000,-0.112967
LINE266,0.000000,-0.918528,0.000000,-1.432434,62.368521,1.243903
LINE267,0.000000,3.461810,32.720349,3.322606,0.000000,4.630914
LINE268,0.000000,3.018099,32.709093,3.322521,0.000000,4.693920
LINE269,33.672092,-0.840531,0.000000,-0.244318,0.000000,-1.564046
LINE270,0.000000,-1.200370,0.000000,3.677270,31.383836,1.246567
LINE271,489.719140,-0.828057,412.877186,3.315278,316.535869,1.246296
LINE272,32.929578,-0.843743,0.000000,4.009028,0.000000,4.694495
LINE273,0.000000,3.777899,0.000000,3.777899,0.000000,-0.130014
LINE274,0.000000,-1.094823,0.000000,-0.857188,62.368521,1.243903
LINE275,0.000000,3.383079,32.720349,3.322606,0.000000,4.664834
LINE276,0.000000,2.915845,32.709093,3.322521,0.000000,4.710187
LINE277,33.672092,-0.840531,0.000000,-0.089494,0.000000,4.709716
LINE278,0.000000,-1.194560,0.000000,3.553710,31.383836,1.246567
LINE279,489.719140,-0.828057,412.877186,3.315278,316.535869,1.246296
LINE280,32.929578,-0.843743,0.000000,2.518226,0.000000,1.817365
LINE281,0.000000,3.329588,0.000000,4.531971,0.000000,-0.854290
LINE282,0.000000,-0.774791,0.000000,-1.424895,62.368521,1.243903
LINE283,0.000000,2.515021,32.709093,3.322521,0.000000,4.702686
LINE284,33.672092,-0.840531,0.000000,-0.081846,0.000000,4.679374
LINE285,0.000000,0.015681,0.000000,3.501093,31.383836,1.246567
LINE286,245.024812,-0.826516,137.106553,3.310686,62.617658,1.247753
LINE287,244.694910,-0.829600,275.772797,3.317561,253.918294,1.245936
LINE288,32.929578,-0.843743,0.000000,4.228417,0.000000,1.534968
LINE289,0.000000,4.464445,0.000000,4.464445,0.000000,1.689906
LINE290,0.000000,2.961137,0.000000,4.111832,31.193135,1.243973
LINE291,0.000000,-0.899008,0.000000,4.151105,31.175386,1.243833
LINE292,0.000000,3.354033,32.709093,3.322521,0.000000,4.704987
LINE293,33.672092,-0.840531,0.000000,-0.093015,0.000000,4.711806
LINE294,0.000000,-0.971982,0.000000,3.476711,31.383836,1.246567
LINE295,245.024812,-0.826516,137.106553,3.310686,62.617658,1.247753
LINE296,244.694910,-0.829600,275.772797,3.317561,253.918294,1.245936
LINE297,0.000000,2.898818,0.000000,-0.478919,31.193135,1.243973
LINE298,0.000000,-1.060460,0.000000,3.453299,31.175386,1.243833
LINE299,0.000000,-0.139392,32.709093,3.322521,0.000000,-1.560782
LINE300,33.672092,-0.840531,0.000000,-0.041644,0.000000,4.697279
LINE301,0.000000,-0.503947,0.000000,3.418070,31.383836,1.246567
LINE302,245.024812,-0.826516,137.106553,3.310686,62.617658,1.247753
LINE303,244.694910,-0.829600,275.772797,3.317561,253.918294,1.245936
LINE304,0.000000,2.876630,0.000000,2.268822,31.193135,1.243973
LINE305,0.000000,3.684047,0.000000,3.261518,31.175386,1.243833
LINE306,0.000000,3.108832,32.709093,3.322521,0.000000,4.634752
LINE307,33.672092,-0.840531,0.000000,-0.090596,0.000000,4.693399
LINE308,0.000000,-0.572521,0.000000,3.334899,31.383836,1.246567
LINE309,245.024812,-0.826516,137.106553,3.310686,62.617658,1.247753
LINE310,244.694910,-0.829600,275.772797,3.317561,253.918294,1.245936
LINE311,0.000000,2.700615,0.000000,0.305432,31.193135,1.243973
LINE312,0.000000,2.620710,0.000000,1.988793,31.175386,1.243833
LINE313,0.000000,3.977410,32.709093,3.322521,0.000000,2.160966
LINE314,33.672092,-0.840531,0.000000,-0.151789,0.000000,4.703377
LINE315,0.000000,-0.756678,0.000000,3.661528,31.383836,1.246567
LINE316,68.295823,-0.837072,0.000000,-0.371939,0.000000,3.475858
LINE317,176.734266,-0.822436,137.106553,3.310686,62.617658,1.247753
LINE318,244.694910,-0.829600,275.772797,3.317561,253.918294,1.245936
LINE319,0.000000,4.041103,0.000000,-1.036575,31.193135,1.243973
LINE320,0.000000,1.705331,0.000000,0.083918,31.175386,1.243833
LINE321,33.672092,-0.840531,0.000000,-0.165465,0.000000,-1.568912
LINE322,0.000000,2.941600,0.000000,3.422853,31.383836,1.246567
LINE323,68.295823,-0.837072,0.000000,-0.445256,0.000000,3.439408
LINE324,176.734266,-0.822436,137.106553,3.310686,62.617658,1.247753
LINE325,244.694910,-0.829600,275.772797,3.317561,253.918294,1.245936
LINE326,0.000000,2.330331,0.000000,3.301769,31.175386,1.243833
LINE327,33.672092,-0.840531,0.000000,-0.160373,0.000000,-1.536153
LINE328,0.000000,3.773005,0.000000,-1.050428,31.383836,1.246567
LINE329,68.295823,-0.837072,0.000000,-0.380213,0.000000,3.023986
LINE330,0.000000,-1.068193,0.000000,-0.866981,31.379713,1.247916
LINE331,176.734266,-0.822436,137.106553,3.310686,31.237946,1.247590
LINE332,244.694910,-0.829600,275.772797,3.317561,253.918294,1.245936
LINE333,33.672092,-0.840531,0.000000,-0.155125,0.000000,-1.568228
LINE334,0.000000,0.708128,0.000000,3.250098,31.383836,1.246567
LINE335,68.295823,-0.837072,0.000000,-0.431766,0.000000,3.111842
LINE336,0.000000,2.110457,0.000000,0.145819,31.379713,1.247916
LINE337,0.000000,-1.077214,33.589720,3.314427,0.000000,2.538824
LINE338,176.734266,-0.822436,103.517144,3.309472,31.237946,1.247590
LINE339,244.694910,-0.829600,275.772797,3.317561,253.918294,1.245936
LINE340,33.672092,-0.840531,0.000000,-0.137848,0.000000,4.704875
LINE341,0.000000,3.494438,0.000000,2.615275,31.383836,1.246567
LINE342,34.137684,-0.837146,0.000000,2.804692,0.000000,1.619362
LINE343,34.158139,-0.836998,0.000000,-0.591130,0.000000,2.657007
LINE344,0.000000,-1.071272,33.589720,3.314427,0.000000,2.565976
LINE345,176.734266,-0.822436,103.517144,3.309472,31.237946,1.247590
LINE346,244.694910,-0.829600,275.772797,3.317561,253.918294,1.245936
LINE347,33.672092,-0.840531,0.000000,-0.249805,0.000000,4.687876
LINE348,34.137684,-0.837146,0.000000,3.049062,0.000000,1.638021
LINE349,34.158139,-0.836998,0.000000,-1.021394,0.000000,4.278977
LINE350,0.000000,-1.051946,33.589720,3.314427,0.000000,2.637547
LINE351,176.734266,-0.822436,103.517144,3.309472,31.237946,1.247590
LINE352,244.694910,-0.829600,275.772797,3.317561,253.918294,1.245936
LINE353,33.672092,-0.840531,0.000000,-0.544230,0.000000,4.637104
LINE354,34.158139,-0.836998,0.000000,4.086039,0.000000,4.610361
LINE355,0.000000,4.405891,33.589720,3.314427,0.000000,3.120020
LINE356,176.734266,-0.822436,103.517144,3.309472,31.237946,1.247590
LINE357,244.694910,-0.829600,275.772797,3.317561,253.918294,1.245936
LINE358,33.672092,-0.840531,0.000000,-0.767399,0.000000,4.569316
LINE359,34.158139,-0.836998,0.000000,3.096066,0.000000,3.268310
LINE360,0.000000,3.493818,33.589720,3.314427,0.000000,2.150785
LINE361,176.734266,-0.822436,103.517144,3.309472,31.237946,1.247590
LINE362,244.694910,-0.829600,275.772797,3.317561,253.918294,1.245936
LINE363,33.672092,-0.840531,0.000000,0.461632,0.000000,1.709287
LINE364,34.158139,-0.836998,0.000000,0.274608,0.000000,4.516550
LINE365,0.000000,3.703121,33.589720,3.314427,0.000000,2.244791
LINE366,176.734266,-0.822436,103.517144,3.309472,31.237946,1.247590
LINE367,244.694910,-0.829600,275.772797,3.317561,253.918294,1.245936
LINE368,33.672092,-0.840531,0.000000,-0.217819,0.000000,1.975105
LINE369,34.158139,-0.836998,0.000000,0.167913,0.000000,4.671709
LINE370,0.000000,-0.223704,33.589720,3.314427,0.000000,1.611839
LINE371,176.734266,-0.822436,103.517144,3.309472,31.237946,1.247590
LINE372,244.694910,-0.829600,275.772797,3.317561,253.918294,1.245936
LINE373,33.672092,-0.840531,0.000000,0.454788,0.000000,2.918171
LINE374,34.158139,-0.836998,0.000000,-0.210042,0.000000,4.382017
LINE375,0.000000,0.066193,33.589720,3.314427,0.000000,1.603946
LINE376,176.734266,-0.822436,103.517144,3.309472,31.237946,1.247590
LINE377,244.694910,-0.829600,275.772797,3.317561,222.390985,1.245786
LINE378,0.000000,0.404773,0.000000,2.239699,31.527330,1.246998
LINE379,33.672092,-0.840531,0.000000,2.422965,0.000000,-1.403890
LINE380,34.158139,-0.836998,0.000000,1.093201,0.000000,1.993905
LINE381,0.000000,-0.405462,33.589720,3.314427,0.000000,1.573197
LINE382,176.734266,-0.822436,103.517144,3.309472,31.237946,1.247590
LINE383,244.694910,-0.829600,275.772797,3.317561,222.390985,1.245786
LINE384,0.000000,0.383572,0.000000,4.354438,31.527330,1.246998
LINE385,0.000000,0.365312,0.000000,1.787761,0.000000,4.685690
LINE386,33.672092,-0.840531,0.000000,1.932785,0.000000,-1.310634
LINE387,34.158139,-0.836998,0.000000,2.512770,0.000000,1.849652
LINE388,0.000000,-1.235534,33.589720,3.314427,0.000000,-1.284058
LINE389,176.734266,-0.822436,103.517144,3.309472,31.237946,1.247590
LINE390,244.694910,-0.829600,275.772797,3.317561,222.390985,1.245786
LINE391,0.000000,0.370860,0.000000,4.366353,31.527330,1.246998
LINE392,0.000000,0.378944,0.000000,1.822955,0.000000,4.685520
LINE393,0.000000,-0.620139,33.589720,3.314427,0.000000,-1.270796
LINE394,176.734266,-0.822436,103.517144,3.309472,31.237946,1.247590
LINE395,0.000000,-1.464462,0.000000,2.143229,63.248541,1.247162
LINE396,244.694910,-0.829600,275.772797,3.317561,159.142528,1.245239
LINE397,0.000000,0.455278,0.000000,-1.470142,31.527330,1.246998
LINE398,0.000000,0.488607,0.000000,1.817517,0.000000,4.682530
LINE399,0.000000,-0.366864,33.589720,3.314427,0.000000,-0.379108
LINE400,176.734266,-0.822436,103.517144,3.309472,31.237946,1.247590
LINE401,0.000000,-1.548594,0.000000,2.149330,63.248541,1.247162
LINE402,244.694910,-0.829600,275.772797,3.317561,159.142528,1.245239
LINE403,0.000000,0.440192,0.000000,4.431081,31.527330,1.246998
LINE404,0.000000,0.279239,0.000000,1.833102,0.000000,4.675033
LINE405,0.000000,2.949251,33.589720,3.314427,0.000000,4.674262
LINE406,176.734266,-0.822436,103.517144,3.309472,31.237946,1.247590
LINE407,0.000000,4.497754,0.000000,1.965381,63.248541,1.247162
LINE408,244.694910,-0.829600,275.772797,3.317561,159.142528,1.245239
LINE409,0.000000,-0.842314,0.000000,3.367024,0.000000,1.468607
LINE410,0.000000,0.201371,0.000000,-1.462387,31.527330,1.246998
LINE411,0.000000,0.566987,0.000000,2.093881,0.000000,4.682208
LINE412,176.734266,-0.822436,103.517144,3.309472,31.237946,1.247590
LINE413,0.000000,4.385841,0.000000,2.047586,63.248541,1.247162
LINE414,244.694910,-0.829600,275.772797,3.317561,159.142528,1.245239
LINE415,0.000000,-0.763763,0.000000,3.432114,0.000000,1.450218
LINE416,0.000000,0.356461,0.000000,-1.448177,31.527330,1.246998
LINE417,0.000000,0.390199,0.000000,1.523358,0.000000,4.637892
LINE418,176.734266,-0.822436,103.517144,3.309472,31.237946,1.247590
LINE419,0.000000,-1.542644,0.000000,1.942162,63.248541,1.247162
LINE420,244.694910,-0.829600,275.772797,3.317561,159.142528,1.245239
LINE421,0.000000,-0.878623,0.000000,3.459006,0.000000,1.365788
LINE422,0.000000,0.392856,0.000000,4.627464,31.527330,1.246998
LINE423,0.000000,0.720602,0.000000,1.644387,0.000000,4.484366
LINE424,176.734266,-0.822436,103.517144,3.309472,31.237946,1.247590
LINE425,0.000000,-0.201681,0.000000,-0.201681,0.000000,2.996186
LINE426,0.000000,-1.439250,0.000000,1.961601,63.248541,1.247162
LINE427,244.694910,-0.829600,275.772797,3.317561,159.142528,1.245239
LINE428,0.000000,-0.746641,0.000000,3.542609,0.000000,1.459789
LINE429,0.000000,1.198546,0.000000,0.100128,31.527330,1.246998
LINE430,0.000000,0.706339,0.000000,1.710426,0.000000,4.537066
LINE431,176.734266,-0.822436,103.517144,3.309472,31.237946,1.247590
LINE432,0.000000,1.720959,0.000000,-0.447477,0.000000,3.750065
LINE433,0.000000,-1.333094,0.000000,1.992823,63.248541,1.247162
LINE434,244.694910,-0.829600,275.772797,3.317561,159.142528,1.245239
LINE435,0.000000,-0.762625,0.000000,3.552026,0.000000,1.426543
LINE436,0.000000,1.093895,0.000000,-0.170265,31.527330,1.246998
LINE437,0.000000,0.566414,0.000000,2.092940,0.000000,4.605693
LINE438,176.734266,-0.822436,103.517144,3.309472,31.237946,1.247590
LINE439,0.000000,2.939912,0.000000,2.939912,0.000000,-0.145406
LINE440,0.000000,-1.315039,0.000000,2.098953,63.248541,1.247162
LINE441,244.694910,-0.829600,275.772797,3.317561,159.142528,1.245239
LINE442,0.000000,-0.689813,0.000000,3.584489,0.000000,1.498228
LINE443,0.000000,-0.007913,0.000000,1.824684,31.527330,1.246998
LINE444,0.000000,0.180690,0.000000,0.761751,0.000000,4.683171
LINE445,176.734266,-0.822436,103.517144,3.309472,31.237946,1.247590
LINE446,0.000000,2.873617,0.000000,-0.061256,0.000000,0.722336
LINE447,0.000000,-1.221480,0.000000,1.974052,63.248541,1.247162
LINE448,244.694910,-0.829600,275.772797,3.317561,159.142528,1.245239
LINE449,0.000000,-0.803824,0.000000,3.509387,0.000000,1.350541
LINE450,0.000000,3.147709,0.000000,3.436484,31.527330,1.246998
LINE451,0.000000,-0.064525,0.000000,0.766463,0.000000,4.640750
LINE452,176.734266,-0.822436,103.517144,3.309472,31.237946,1.247590
LINE453,0.000000,1.702539,0.000000,3.917441,0.000000,-1.158922
LINE454,0.000000,-0.910232,0.000000,2.070354,63.248541,1.247162
LINE455,244.694910,-0.829600,275.772797,3.317561,159.142528,1.245239
LINE456,0.000000,-0.869500,0.000000,3.608998,0.000000,1.295130
LINE457,0.000000,1.067873,0.000000,-0.159215,31.527330,1.246998
LINE458,0.000000,0.059014,0.000000,0.846376,0.000000,4.630594
LINE459,141.630603,-0.821633,103.517144,3.309472,31.237946,1.247590
LINE460,0.000000,3.698490,0.000000,3.698490,0.000000,1.953497
LINE461,35.103892,-0.825677,0.000000,0.058850,0.000000,4.693148
LINE462,0.000000,-1.047052,0.000000,2.144626,63.248541,1.247162
LINE463,244.694910,-0.829600,275.772797,3.317561,159.142528,1.245239
LINE464,0.000000,-0.793332,0.000000,3.398664,0.000000,1.066256
LINE465,0.000000,-0.238981,0.000000,0.589537,0.000000,4.555175
LINE466,141.630603,-0.821633,103.517144,3.309472,31.237946,1.247590
LINE467,0.000000,-1.514066,0.000000,0.772153,0.000000,2.564694
LINE468,0.000000,4.279588,0.000000,2.130518,0.000000,0.159181
LINE469,35.103892,-0.825677,0.000000,0.022911,0.000000,4.687331
LINE470,0.000000,-1.348940,0.000000,2.013442,63.248541,1.247162
LINE471,244.694910,-0.829600,275.772797,3.317561,159.142528,1.245239
LINE472,0.000000,-0.844011,0.000000,3.401547,0.000000,0.060481
LINE473,0.000000,0.240067,0.000000,0.722016,0.000000,4.642297
LINE474,141.630603,-0.821633,103.517144,3.309472,31.237946,1.247590
LINE475,0.000000,-1.028529,0.000000,4.628788,0.000000,4.534918
LINE476,35.103892,-0.825677,0.000000,0.049335,0.000000,4.689668
LINE477,0.000000,-1.351341,0.000000,2.030715,63.248541,1.247162
LINE478,244.694910,-0.829600,275.772797,3.317561,159.142528,1.245239
LINE479,0.000000,-0.778137,0.000000,3.104653,0.000000,1.506471
LINE480,0.000000,1.508635,0.000000,0.376798,0.000000,3.235104
LINE481,70.896043,-0.820604,103.517144,3.309472,31.237946,1.247590
LINE482,0.000000,4.136043,0.000000,2.372038,0.000000,1.689393
LINE483,70.734636,-0.822665,0.000000,0.438154,0.000000,-1.554427
LINE484,35.103892,-0.825677,0.000000,0.017879,0.000000,4.688207
LINE485,0.000000,-1.359856,0.000000,1.859739,63.248541,1.247162
LINE486,244.694910,-0.829600,275.772797,3.317561,159.142528,1.245239
LINE487,0.000000,-0.851823,0.000000,3.161628,0.000000,-0.953187
LINE488,0.000000,-0.082260,0.000000,1.526120,0.000000,-0.146941
LINE489,70.896043,-0.820604,103.517144,3.309472,31.237946,1.247590
LINE490,0.000000,4.635716,0.000000,1.146314,0.000000,2.026935
LINE491,35.363457,-0.822692,0.000000,0.467130,0.000000,-1.555972
LINE492,35.371179,-0.822638,0.000000,3.496843,0.000000,1.502605
LINE493,35.103892,-0.825677,0.000000,0.063998,0.000000,4.702228
LINE494,0.000000,4.097654,0.000000,1.816146,63.248541,1.247162
LINE495,244.694910,-0.829600,275.772797,3.317561,159.142528,1.245239
LINE496,0.000000,-0.883003,0.000000,3.188953,0.000000,-1.306025
LINE497,0.000000,-0.072315,0.000000,2.601191,0.000000,-1.529096
LINE498,70.896043,-0.820604,103.517144,3.309472,31.237946,1.247590
LINE499,0.000000,3.107437,0.000000,0.190267,0.000000,3.579240
LINE500,35.363457,-0.822692,0.000000,0.489394,0.000000,-1.565003
LINE501,35.371179,-0.822638,0.000000,3.118291,0.000000,1.415647
LINE502,35.103892,-0.825677,0.000000,0.066967,0.000000,-1.566655
LINE503,0.000000,2.732811,0.000000,1.867628,63.248541,1.247162
LINE504,244.694910,-0.829600,275.772797,3.317561,159.142528,1.245239
LINE505,0.000000,-1.040290,0.000000,3.141802,0.000000,-1.468755
LINE506,0.000000,-0.149575,0.000000,-0.149575,0.000000,3.066247
LINE507,70.896043,-0.820604,103.517144,3.309472,31.237946,1.247590
LINE508,0.000000,-0.456314,0.000000,1.383310,0.000000,1.139974
LINE509,35.363457,-0.822692,0.000000,0.396704,0.000000,4.709319
LINE510,35.103892,-0.825677,0.000000,0.076547,0.000000,-1.557688
LINE511,0.000000,2.782140,0.000000,1.024718,63.248541,1.247162
LINE512,0.000000,-0.145269,33.836148,3.317606,0.000000,4.634659
LINE513,244.694910,-0.829600,241.936650,3.317554,159.142528,1.245239
LINE514,0.000000,-0.957276,0.000000,2.835949,0.000000,-1.395047
LINE515,0.000000,2.257119,103.517144,3.309472,31.237946,1.247590
LINE516,0.000000,2.939912,0.000000,2.939912,0.000000,-0.145406
LINE517,70.896043,-0.820604,0.000000,2.575066,0.000000,1.547619
LINE518,35.363457,-0.822692,0.000000,0.405326,0.000000,4.696468
LINE519,35.103892,-0.825677,0.000000,0.086771,0.000000,-1.563916
LINE520,0.000000,2.563185,0.000000,1.680865,63.248541,1.247162
LINE521,0.000000,0.558811,33.836148,3.317606,0.000000,4.678343
LINE522,244.694910,-0.829600,241.936650,3.317554,159.142528,1.245239
LINE523,0.000000,-1.047894,0.000000,3.326595,0.000000,-1.285083
LINE524,0.000000,2.282265,103.517144,3.309472,31.237946,1.247590
LINE525,0.000000,2.908942,0.000000,4.568597,0.000000,2.720970
LINE526,70.896043,-0.820604,0.000000,2.551509,0.000000,1.546412
LINE527,35.363457,-0.822692,0.000000,0.702270,0.000000,4.705886
LINE528,35.103892,-0.825677,0.000000,-0.019518,0.000000,-1.551967
LINE529,0.000000,3.204896,0.000000,0.141815,63.248541,1.247162
LINE530,244.694910,-0.829600,241.936650,3.317554,159.142528,1.245239
LINE531,0.000000,-1.133977,0.000000,3.770100,0.000000,-0.812819
LINE532,0.000000,2.289687,103.517144,3.309472,31.237946,1.247590
LINE533,0.000000,-0.201681,0.000000,-0.201681,0.000000,2.996186
LINE534,70.896043,-0.820604,0.000000,2.550113,0.000000,1.545610
LINE535,35.363457,-0.822692,0.000000,0.613265,0.000000,-1.475218
LINE536,35.103892,-0.825677,0.000000,-0.067844,0.000000,4.703505
LINE537,0.000000,0.407777,0.000000,4.704528,31.634568,1.247242
LINE538,0.000000,3.991171,0.000000,0.204196,31.613973,1.247081
LINE539,244.694910,-0.829600,241.936650,3.317554,159.142528,1.245239
LINE540,0.000000,-0.792839,0.000000,3.691722,0.000000,4.677740
LINE541,0.000000,2.258969,103.517144,3.309472,31.237946,1.247590
LINE542,0.000000,-0.624248,0.000000,2.527937,0.000000,3.979775
LINE543,70.896043,-0.820604,0.000000,2.515062,0.000000,1.542156
LINE544,35.363457,-0.822692,0.000000,0.494526,0.000000,4.678201
LINE545,35.103892,-0.825677,0.000000,-0.110913,0.000000,4.709705
LINE546,0.000000,0.135664,0.000000,3.933064,31.634568,1.247242
LINE547,244.694910,-0.829600,241.936650,3.317554,159.142528,1.245239
LINE548,0.000000,-1.179883,0.000000,3.624701,0.000000,0.930332
LINE549,0.000000,2.284089,103.517144,3.309472,31.237946,1.247590
LINE550,0.000000,4.580905,0.000000,4.580905,0.000000,1.495587
LINE551,35.447064,-0.820610,0.000000,2.710707,0.000000,1.549361
LINE552,35.448979,-0.820597,0.000000,0.095982,0.000000,1.812133
LINE553,35.363457,-0.822692,0.000000,-0.543285,0.000000,4.712236
LINE554,35.103892,-0.825677,0.000000,-0.132992,0.000000,-1.533707
LINE555,0.000000,3.854042,0.000000,-0.733179,31.634568,1.247242
LINE556,244.694910,-0.829600,241.936650,3.317554,159.142528,1.245239
LINE557,0.000000,-0.861439,0.000000,3.684371,0.000000,2.336879
LINE558,0.000000,2.285634,103.517144,3.309472,31.237946,1.247590
LINE559,0.000000,4.325360,0.000000,1.482339,0.000000,-1.206972
LINE560,35.447064,-0.820610,0.000000,2.144974,0.000000,1.555971
LINE561,35.448979,-0.820597,0.000000,2.089531,0.000000,4.694084
LINE562,35.363457,-0.822692,0.000000,-0.083782,0.000000,-1.550413
LINE563,35.103892,-0.825677,0.000000,-0.104813,0.000000,4.682561
LINE564,244.694910,-0.829600,241.936650,3.317554,159.142528,1.245239
LINE565,0.000000,4.529606,0.000000,1.024748,0.000000,4.528959
LINE566,0.000000,2.222337,34.485790,3.309545,31.237946,1.247590
LINE567,0.000000,4.287907,0.000000,4.287907,0.000000,1.202589
LINE568,0.000000,4.591040,69.031354,3.309436,0.000000,1.630858
LINE569,35.447064,-0.820610,0.000000,3.066199,0.000000,1.544792
LINE570,35.103892,-0.825677,0.000000,0.100084,0.000000,4.700073
LINE571,244.694910,-0.829600,241.936650,3.317554,159.142528,1.245239
LINE572,0.000000,2.437417,34.485790,3.309545,31.237946,1.247590
LINE573,0.000000,4.425032,0.000000,1.956869,0.000000,-1.128095
LINE574,0.000000,-1.515598,69.031354,3.309436,0.000000,1.637316
LINE575,35.447064,-0.820610,0.000000,3.180764,0.000000,1.736216
LINE576,35.103892,-0.825677,0.000000,0.129264,0.000000,4.616620
LINE577,244.694910,-0.829600,241.936650,3.317554,159.142528,1.245239
LINE578,0.000000,0.303775,34.485790,3.309545,31.237946,1.247590
LINE579,0.000000,0.465813,0.000000,0.465813,0.000000,-1.556485
LINE580,0.000000,2.577834,0.000000,3.788764,0.000000,-1.322593
LINE581,0.000000,-1.138555,69.031354,3.309436,0.000000,1.681216
LINE582,35.447064,-0.820610,0.000000,3.120656,0.000000,-1.558885
LINE583,35.103892,-0.825677,0.000000,0.305246,0.000000,4.564710
LINE584,0.000000,-0.541209,33.904610,3.317725,0.000000,1.646036
LINE585,244.694910,-0.829600,208.032040,3.317526,159.142528,1.245239
LINE586,0.000000,0.355071,34.485790,3.309545,31.237946,1.247590
LINE587,0.000000,2.674382,0.000000,0.769506,0.000000,-0.799055
LINE588,0.000000,2.736236,0.000000,3.700363,0.000000,-1.180389
LINE589,0.000000,4.711402,69.031354,3.309436,0.000000,1.736187
LINE590,35.447064,-0.820610,0.000000,3.987930,0.000000,-1.489774
LINE591,35.103892,-0.825677,0.000000,-0.077268,0.000000,4.626213
LINE592,0.000000,-0.508556,33.904610,3.317725,0.000000,1.648490
LINE593,244.694910,-0.829600,208.032040,3.317526,159.142528,1.245239
LINE594,0.000000,0.012386,34.485790,3.309545,0.000000,0.707340
LINE595,0.000000,2.144773,0.000000,0.608516,31.237946,1.247590
LINE596,0.000000,3.275358,0.000000,3.899845,0.000000,-1.208908
LINE597,0.000000,-1.159643,69.031354,3.309436,0.000000,1.722323
LINE598,35.447064,-0.820610,0.000000,-1.343618,0.000000,1.483255
LINE599,35.103892,-0.825677,0.000000,0.348873,0.000000,4.449279
LINE600,0.000000,-0.477598,33.904610,3.317725,0.000000,1.637201
LINE601,0.000000,3.175017,0.000000,0.293497,31.678463,1.245577
LINE602,244.694910,-0.829600,208.032040,3.317526,127.464067,1.245155
LINE603,0.000000,0.080285,34.485790,3.309545,0.000000,4.277916
LINE604,0.000000,1.366873,0.000000,1.259942,0.000000,1.862048
LINE605,0.000000,1.478058,0.000000,1.478058,0.000000,4.675925
LINE606,0.000000,0.204451,0.000000,-1.373230,31.237946,1.247590
LINE607,0.000000,2.992017,0.000000,2.992017,0.000000,-0.075346
LINE608,0.000000,2.976913,0.000000,3.826172,0.000000,-1.372732
LINE609,0.000000,-1.130880,69.031354,3.309436,0.000000,1.728678
LINE610,35.447064,-0.820610,0.000000,3.026658,0.000000,1.562401
LINE611,35.103892,-0.825677,0.000000,1.371126,0.000000,-1.257077
LINE612,0.000000,-0.495925,33.904610,3.317725,0.000000,1.619761
LINE613,0.000000,-0.879670,0.000000,-0.389088,31.678463,1.245577
LINE614,244.694910,-0.829600,208.032040,3.317526,127.464067,1.245155
LINE615,0.000000,0.717880,34.485790,3.309545,0.000000,-1.464311
LINE616,0.000000,0.157384,0.000000,-0.849802,0.000000,2.121481
LINE617,0.000000,0.155979,0.000000,-0.847843,0.000000,2.145596
LINE618,0.000000,1.735827,0.000000,-0.445380,31.237946,1.247590
LINE619,0.000000,2.849777,0.000000,3.756201,0.000000,-1.431279
LINE620,0.000000,-0.752587,69.031354,3.309436,0.000000,1.708309
LINE621,35.103892,-0.825677,0.000000,0.179347,0.000000,1.552071
LINE622,0.000000,-0.501312,33.904610,3.317725,0.000000,1.654681
LINE623,0.000000,0.986295,34.038894,3.316718,0.000000,-1.540755
LINE624,244.694910,-0.829600,173.993160,3.317684,127.464067,1.245155
LINE625,0.000000,0.223938,34.485790,3.309545,0.000000,1.363569
LINE626,0.000000,2.650649,0.000000,3.722111,0.000000,-0.426373
LINE627,0.000000,-1.172538,69.031354,3.309436,0.000000,1.700541
LINE628,35.103892,-0.825677,0.000000,1.410120,0.000000,3.857463
LINE629,0.000000,-0.442882,33.904610,3.317725,0.000000,1.638156
LINE630,0.000000,1.502412,34.038894,3.316718,0.000000,-1.481640
LINE631,244.694910,-0.829600,173.993160,3.317684,127.464067,1.245155
LINE632,0.000000,0.000000,34.485790,3.309545,0.000000,1.534518
LINE633,0.000000,3.087809,0.000000,4.125397,0.000000,-0.409131
LINE634,0.000000,-1.135798,69.031354,3.309436,0.000000,1.701526
LINE635,0.000000,-0.481205,33.904610,3.317725,0.000000,1.623486
LINE636,0.000000,0.649592,34.038894,3.316718,0.000000,4.429891
LINE637,244.694910,-0.829600,173.993160,3.317684,127.464067,1.245155
LINE638,0.000000,0.000000,34.485790,3.309545,0.000000,4.598030
LINE639,0.000000,3.359183,0.000000,3.822473,0.000000,1.206589
LINE640,0.000000,-1.357979,69.031354,3.309436,0.000000,1.697600
LINE641,0.000000,-0.533851,33.904610,3.317725,0.000000,1.622378
LINE642,0.000000,-0.244212,34.038894,3.316718,0.000000,1.558314
LINE643,244.694910,-0.829600,173.993160,3.317684,127.464067,1.245155
LINE644,0.000000,2.064341,0.000000,3.263302,0.000000,1.458850
LINE645,0.000000,4.618612,69.031354,3.309436,0.000000,1.702498
LINE646,0.000000,-0.513388,33.904610,3.317725,0.000000,1.625778
LINE647,0.000000,-0.167304,34.038894,3.316718,0.000000,1.582104
LINE648,244.694910,-0.829600,173.993160,3.317684,127.464067,1.245155
LINE649,0.000000,2.109255,0.000000,0.869763,0.000000,4.711697
LINE650,0.000000,3.934979,69.031354,3.309436,0.000000,3.879911
LINE651,0.000000,-0.481544,33.904610,3.317725,0.000000,1.615959
LINE652,0.000000,-0.255891,34.038894,3.316718,0.000000,1.586282
LINE653,244.694910,-0.829600,173.993160,3.317684,127.464067,1.245155
LINE654,0.000000,2.647077,0.000000,3.148278,0.000000,-0.421178
LINE655,0.000000,4.369005,34.517830,3.309451,0.000000,1.773376
LINE656,0.000000,-1.382172,34.513524,3.309420,0.000000,1.563861
LINE657,0.000000,-0.553119,33.904610,3.317725,0.000000,1.624529
LINE658,0.000000,-0.464135,34.038894,3.316718,0.000000,1.594706
LINE659,244.694910,-0.829600,173.993160,3.317684,127.464067,1.245155
LINE660,0.000000,3.057374,0.000000,2.797212,0.000000,4.626197
LINE661,0.000000,-0.901432,34.517830,3.309451,0.000000,3.305478
LINE662,0.000000,-1.049268,34.513524,3.309420,0.000000,1.759193
LINE663,0.000000,-0.477869,33.904610,3.317725,0.000000,1.637509
LINE664,0.000000,-0.838405,34.038894,3.316718,0.000000,1.582485
LINE665,244.694910,-0.829600,173.993160,3.317684,127.464067,1.245155
LINE666,0.000000,3.601374,0.000000,2.846421,0.000000,4.262768
LINE667,0.000000,3.382191,34.517830,3.309451,0.000000,1.598158
LINE668,0.000000,2.936701,34.513524,3.309420,0.000000,1.533858
LINE669,0.000000,-0.482125,33.904610,3.317725,0.000000,1.634413
LINE670,0.000000,-0.787751,34.038894,3.316718,0.000000,1.575657
LINE671,104.521764,-0.832194,0.000000,1.961246,0.000000,4.604753
LINE672,140.173761,-0.827666,173.993160,3.317684,127.464067,1.245155
LINE673,0.000000,4.234819,0.000000,2.422900,0.000000,3.902841
LINE674,0.000000,1.507041,34.517830,3.309451,0.000000,1.549287
LINE675,0.000000,3.357902,34.513524,3.309420,0.000000,1.604784
LINE676,0.000000,-0.483046,33.904610,3.317725,0.000000,1.632805
LINE677,0.000000,-1.513830,34.038894,3.316718,0.000000,1.595167
LINE678,104.521764,-0.832194,0.000000,2.048546,0.000000,4.600690
LINE679,140.173761,-0.827666,173.993160,3.317684,127.464067,1.245155
LINE680,0.000000,-0.201681,0.000000,-0.201681,0.000000,2.996186
LINE681,0.000000,-0.500797,34.517830,3.309451,0.000000,4.684850
LINE682,0.000000,-0.399630,33.904610,3.317725,0.000000,1.626225
LINE683,0.000000,-0.399822,34.038894,3.316718,0.000000,1.633210
LINE684,104.521764,-0.832194,0.000000,2.501607,0.000000,4.568584
LINE685,140.173761,-0.827666,173.993160,3.317684,127.464067,1.245155
LINE686,0.000000,-0.429879,33.904610,3.317725,0.000000,1.627888
LINE687,0.000000,-0.973361,34.038894,3.316718,0.000000,1.569915
LINE688,104.521764,-0.832194,0.000000,2.128050,0.000000,4.565997
LINE689,0.000000,0.233897,0.000000,3.977844,63.581781,1.245908
LINE690,140.173761,-0.827666,173.993160,3.317684,63.882321,1.244406
LINE691,0.000000,-0.370537,33.904610,3.317725,0.000000,1.644164
LINE692,104.521764,-0.832194,0.000000,2.675961,0.000000,4.567019
LINE693,0.000000,0.363451,0.000000,3.961133,31.793124,1.245925
LINE694,0.000000,-0.431104,0.000000,3.708849,31.788657,1.245891
LINE695,0.000000,1.927471,34.271256,3.316416,0.000000,1.251776
LINE696,140.173761,-0.827666,139.721938,3.317995,63.882321,1.244406
LINE697,0.000000,-0.392840,33.904610,3.317725,0.000000,1.653697
LINE698,104.521764,-0.832194,0.000000,2.437264,0.000000,4.605871
LINE699,0.000000,0.307357,0.000000,3.791291,31.793124,1.245925
LINE700,0.000000,3.071704,0.000000,-1.255926,31.788657,1.245891
LINE701,0.000000,3.600454,34.271256,3.316416,0.000000,1.282202
LINE702,140.173761,-0.827666,139.721938,3.317995,63.882321,1.244406
LINE703,0.000000,-0.385622,33.904610,3.317725,0.000000,1.664177
LINE704,104.521764,-0.832194,0.000000,2.000899,0.000000,4.617023
LINE705,0.000000,-0.513403,0.000000,4.348357,31.793124,1.245925
LINE706,140.173761,-0.827666,139.721938,3.317995,63.882321,1.244406
LINE707,0.000000,1.975530,0.000000,2.798380,0.000000,4.425437
LINE708,0.000000,-0.399490,33.904610,3.317725,0.000000,1.667110
LINE709,104.521764,-0.832194,0.000000,2.012587,0.000000,4.613604
LINE710,0.000000,4.655182,0.000000,3.627128,31.793124,1.245925
LINE711,70.323478,-0.825280,139.721938,3.317995,63.882321,1.244406
LINE712,69.850685,-0.830069,0.000000,-0.526745,0.000000,1.687627
LINE713,0.000000,2.130218,0.000000,2.482011,0.000000,4.603979
LINE714,0.000000,-0.402847,33.904610,3.317725,0.000000,1.675527
LINE715,104.521764,-0.832194,0.000000,2.063496,0.000000,4.611225
LINE716,0.000000,2.318241,0.000000,3.615275,31.793124,1.245925
LINE717,70.323478,-0.825280,139.721938,3.317995,63.882321,1.244406
LINE718,69.850685,-0.830069,0.000000,-0.472532,0.000000,1.691228
LINE719,0.000000,1.866447,0.000000,2.472908,0.000000,4.518889
LINE720,0.000000,-0.172098,33.904610,3.317725,0.000000,1.613486
LINE721,104.521764,-0.832194,0.000000,2.040189,0.000000,4.604982
LINE722,0.000000,2.847443,0.000000,0.537002,31.793124,1.245925
LINE723,70.323478,-0.825280,70.278149,3.318130,63.882321,1.244406
LINE724,0.000000,-0.454267,69.443790,3.317859,0.000000,1.596598
LINE725,69.850685,-0.830069,0.000000,-0.618628,0.000000,1.653704
LINE726,0.000000,1.712832,0.000000,2.277207,0.000000,-1.476693
LINE727,0.000000,-0.154976,33.904610,3.317725,0.000000,1.574480
LINE728,104.521764,-0.832194,0.000000,2.171014,0.000000,4.584135
LINE729,0.000000,2.755116,0.000000,1.560721,31.793124,1.245925
LINE730,70.323478,-0.825280,70.278149,3.318130,63.882321,1.244406
LINE731,0.000000,-0.460567,69.443790,3.317859,0.000000,1.596299
LINE732,69.850685,-0.830069,0.000000,-1.280235,0.000000,1.652111
LINE733,0.000000,2.395046,0.000000,2.007333,0.000000,-1.280938
LINE734,0.000000,-0.319977,33.904610,3.317725,0.000000,1.584477
LINE735,104.521764,-0.832194,0.000000,1.823956,0.000000,4.608694
LINE736,0.000000,2.922180,0.000000,3.082508,31.793124,1.245925
LINE737,70.323478,-0.825280,70.278149,3.318130,63.882321,1.244406
LINE738,0.000000,-0.440090,69.443790,3.317859,0.000000,1.594850
LINE739,69.850685,-0.830069,0.000000,-0.807192,0.000000,1.629993
LINE740,0.000000,2.521598,0.000000,2.682264,0.000000,4.605624
LINE741,0.000000,-0.548459,33.904610,3.317725,0.000000,1.612750
LINE742,104.521764,-0.832194,0.000000,1.601344,0.000000,4.597877
LINE743,0.000000,2.912916,0.000000,3.733966,31.793124,1.245925
LINE744,70.323478,-0.825280,70.278149,3.318130,63.882321,1.244406
LINE745,0.000000,3.596221,34.725197,3.317883,0.000000,1.583729
LINE746,0.000000,-0.432369,34.718593,3.317836,0.000000,1.567093
LINE747,69.850685,-0.830069,0.000000,-0.863711,0.000000,1.614951
LINE748,0.000000,2.774350,0.000000,2.906737,0.000000,4.411648
LINE749,0.000000,-0.483532,33.904610,3.317725,0.000000,1.609071
LINE750,104.521764,-0.832194,0.000000,1.075571,0.000000,4.614143
LINE751,0.000000,1.695014,0.000000,-0.153462,31.793124,1.245925
LINE752,70.323478,-0.825280,70.278149,3.318130,0.000000,4.241817
LINE753,0.000000,-0.084397,0.000000,3.703536,63.882321,1.244406
LINE754,0.000000,0.225809,34.725197,3.317883,0.000000,1.515894
LINE755,0.000000,-0.456340,34.718593,3.317836,0.000000,1.572762
LINE756,69.850685,-0.830069,0.000000,-0.718466,0.000000,1.634542
LINE757,0.000000,2.597263,0.000000,2.969033,0.000000,4.486077
LINE758,0.000000,4.521923,33.904610,3.317725,0.000000,4.649541
LINE759,104.521764,-0.832194,0.000000,1.094991,0.000000,4.597401
LINE760,0.000000,1.642446,0.000000,0.356759,31.793124,1.245925
LINE761,70.323478,-0.825280,70.278149,3.318130,0.000000,4.085636
LINE762,0.000000,-0.082684,0.000000,3.710702,63.882321,1.244406
LINE763,0.000000,-1.225084,34.718593,3.317836,0.000000,1.543594
LINE764,69.850685,-0.830069,0.000000,-1.001066,0.000000,1.636989
LINE765,0.000000,2.796489,0.000000,2.717372,0.000000,4.527325
LINE766,0.000000,3.331573,33.904610,3.317725,0.000000,1.524441
LINE767,104.521764,-0.832194,0.000000,1.147972,0.000000,4.600600
LINE768,0.000000,0.042943,0.000000,3.881463,31.793124,1.245925
LINE769,70.323478,-0.825280,70.278149,3.318130,0.000000,3.963705
LINE770,0.000000,-0.324856,0.000000,4.171452,31.944861,1.244435
LINE771,0.000000,-0.141843,0.000000,3.734548,31.937460,1.244378
LINE772,0.000000,0.127091,34.718593,3.317836,0.000000,1.652414
LINE773,69.850685,-0.830069,0.000000,-1.052955,0.000000,1.628001
LINE774,0.000000,2.845063,0.000000,1.322464,0.000000,4.537453
LINE775,0.000000,3.229923,33.904610,3.317725,0.000000,1.661882
LINE776,104.521764,-0.832194,0.000000,1.233762,0.000000,4.600299
LINE777,0.000000,1.970024,0.000000,1.970024,31.793124,1.245925
LINE778,70.323478,-0.825280,70.278149,3.318130,0.000000,3.933814
LINE779,0.000000,-0.116134,0.000000,3.986269,31.944861,1.244435
LINE780,0.000000,-0.128969,0.000000,3.686960,31.937460,1.244378
LINE781,0.000000,0.194640,34.718593,3.317836,0.000000,1.564573
LINE782,69.850685,-0.830069,0.000000,-0.995397,0.000000,1.622726
LINE783,0.000000,3.213199,0.000000,1.350517,0.000000,-1.566627
LINE784,0.000000,0.167149,33.904610,3.317725,0.000000,4.706473
LINE785,104.521764,-0.832194,0.000000,1.358808,0.000000,4.601745
LINE786,70.323478,-0.825280,70.278149,3.318130,0.000000,3.667528
LINE787,0.000000,-0.014111,0.000000,3.678282,31.937460,1.244378
LINE788,0.000000,-0.291494,34.718593,3.317836,0.000000,1.577617
LINE789,69.850685,-0.830069,0.000000,-1.133755,0.000000,1.634304
LINE790,0.000000,2.936189,0.000000,2.439692,0.000000,0.214729
LINE791,69.681063,-0.832195,0.000000,1.920388,0.000000,4.586104
LINE792,34.840701,-0.832194,0.000000,0.411827,0.000000,1.294721
LINE793,70.323478,-0.825280,70.278149,3.318130,0.000000,3.260800
LINE794,0.000000,-0.002535,0.000000,3.562658,31.937460,1.244378
LINE795,0.000000,-0.378781,34.718593,3.317836,0.000000,1.539889
LINE796,69.850685,-0.830069,0.000000,-0.729714,0.000000,1.625732
LINE797,0.000000,3.401712,0.000000,3.401712,0.000000,-1.258289
LINE798,69.681063,-0.832195,0.000000,1.793289,0.000000,4.533156
LINE799,34.840701,-0.832194,0.000000,2.690572,0.000000,1.371544
LINE800,70.323478,-0.825280,0.000000,-0.421633,0.000000,1.797079
LINE801,0.000000,4.460638,70.278149,3.318130,0.000000,4.671239
LINE802,0.000000,-0.075043,0.000000,3.457563,31.937460,1.244378
LINE803,0.000000,3.966271,34.718593,3.317836,0.000000,4.377826
LINE804,69.850685,-0.830069,0.000000,-0.668572,0.000000,1.622381
LINE805,0.000000,2.051432,0.000000,0.488946,0.000000,-1.556213
LINE806,69.681063,-0.832195,0.000000,2.676417,0.000000,4.561360
LINE807,34.840701,-0.832194,0.000000,2.276180,0.000000,-1.299661
LINE808,70.323478,-0.825280,0.000000,-0.300538,0.000000,2.163346
LINE809,0.000000,-1.311784,70.278149,3.318130,0.000000,4.633653
LINE810,0.000000,-0.201681,0.000000,-0.201681,0.000000,2.996186
LINE811,0.000000,0.303612,0.000000,3.346998,31.937460,1.244378
LINE812,0.000000,3.326773,34.718593,3.317836,0.000000,4.638682
LINE813,69.850685,-0.830069,0.000000,-0.403773,0.000000,1.638054
LINE814,0.000000,-0.298388,0.000000,3.120822,0.000000,4.150767
LINE815,69.681063,-0.832195,0.000000,1.638382,0.000000,4.516819
LINE816,34.840701,-0.832194,0.000000,3.767392,0.000000,-1.057978
LINE817,70.323478,-0.825280,0.000000,-0.342230,0.000000,3.087897
LINE818,0.000000,-1.126290,70.278149,3.318130,0.000000,4.603285
LINE819,0.000000,-0.084938,0.000000,2.955948,0.000000,1.346653
LINE820,0.000000,-0.008027,0.000000,2.965363,31.937460,1.244378
LINE821,69.850685,-0.830069,0.000000,-0.278284,0.000000,1.662260
LINE822,0.000000,-0.055211,0.000000,3.213585,0.000000,1.730661
LINE823,69.681063,-0.832195,0.000000,-1.136241,0.000000,2.936597
LINE824,70.323478,-0.825280,0.000000,0.031972,0.000000,4.362301
LINE825,0.000000,4.316678,70.278149,3.318130,0.000000,4.580092
LINE826,0.000000,1.837374,0.000000,-0.485302,0.000000,-1.245342
LINE827,0.000000,-0.438168,0.000000,3.394007,31.937460,1.244378
LINE828,69.850685,-0.830069,0.000000,-0.407452,0.000000,1.765613
LINE829,0.000000,2.493018,0.000000,2.493018,0.000000,1.185055
LINE830,69.681063,-0.832195,0.000000,2.922833,0.000000,1.718888
LINE831,70.323478,-0.825280,0.000000,0.088424,0.000000,4.562062
LINE832,0.000000,4.427657,70.278149,3.318130,0.000000,4.498299
LINE833,0.000000,0.000000,0.000000,0.000000,0.000000,0.000000
LINE834,0.000000,3.046046,0.000000,0.819932,31.937460,1.244378
LINE835,69.850685,-0.830069,0.000000,-0.584657,0.000000,1.766515
LINE836,69.681063,-0.832195,0.000000,3.868357,0.000000,1.601427
LINE837,70.323478,-0.825280,0.000000,0.051136,0.000000,4.505557
LINE838,0.000000,4.515224,70.278149,3.318130,0.000000,4.546251
LINE839,0.000000,-1.344540,0.000000,3.153202,0.000000,1.247389
LINE840,69.850685,-0.830069,0.000000,-0.625419,0.000000,1.775815
LINE841,69.681063,-0.832195,0.000000,1.077260,0.000000,1.589492
LINE842,70.323478,-0.825280,0.000000,0.152409,0.000000,4.610323
LINE843,0.000000,0.183191,70.278149,3.318130,0.000000,4.676761
LINE844,0.000000,3.662157,0.000000,-0.168697,0.000000,4.495100
LINE845,0.000000,0.000000,0.000000,0.000000,0.000000,0.000000
LINE846,69.850685,-0.830069,0.000000,-0.656052,0.000000,1.781398
LINE847,69.681063,-0.832195,0.000000,3.541826,0.000000,1.601382
LINE848,70.323478,-0.825280,0.000000,0.209144,0.000000,4.607823
LINE849,0.000000,0.143575,70.278149,3.318130,0.000000,4.676110
LINE850,0.000000,3.633908,0.000000,-0.158799,0.000000,4.326063
LINE851,0.000000,2.939912,0.000000,2.939912,0.000000,-0.145406
LINE852,69.850685,-0.830069,0.000000,-0.624965,0.000000,1.823384
LINE853,69.681063,-0.832195,0.000000,4.092559,0.000000,1.606404
LINE854,70.323478,-0.825280,0.000000,0.159929,0.000000,4.570373
LINE855,0.000000,-0.019935,70.278149,3.318130,0.000000,4.642467
LINE856,0.000000,3.734513,0.000000,-0.211108,0.000000,4.344907
LINE857,0.000000,2.939912,0.000000,2.939912,0.000000,-0.145406
LINE858,69.850685,-0.830069,0.000000,-0.907195,0.000000,4.471967
LINE859,34.825224,-0.832303,0.000000,3.704194,0.000000,1.602342
LINE860,34.855839,-0.832086,0.000000,2.874821,0.000000,4.482193
LINE861,70.323478,-0.825280,0.000000,0.135304,0.000000,4.581438
LINE862,0.000000,0.047358,70.278149,3.318130,0.000000,4.637579
LINE863,0.000000,3.737221,0.000000,-0.194914,0.000000,4.158643
LINE864,0.000000,4.372587,0.000000,-0.265010,0.000000,4.402073
LINE865,69.850685,-0.830069,0.000000,-0.180979,0.000000,4.629023
LINE866,70.323478,-0.825280,0.000000,0.170451,0.000000,4.571599
LINE867,0.000000,0.097630,70.278149,3.318130,0.000000,4.629247
LINE868,0.000000,3.545661,0.000000,-0.244581,0.000000,4.087787
LINE869,0.000000,3.320355,0.000000,2.576408,0.000000,0.059348
LINE870,69.850685,-0.830069,0.000000,-0.356991,0.000000,4.680175
LINE871,70.323478,-0.825280,0.000000,0.139308,0.000000,4.551123
LINE872,0.000000,0.032150,35.145669,3.318178,0.000000,4.676110
LINE873,0.000000,0.000000,35.132480,3.318082,0.000000,-1.498606
LINE874,0.000000,3.971786,0.000000,-1.561831,0.000000,3.926190
LINE875,0.000000,0.000000,0.000000,0.000000,0.000000,0.000000
LINE876,69.850685,-0.830069,0.000000,-0.038425,0.000000,4.656973
LINE877,70.323478,-0.825280,0.000000,0.150210,0.000000,4.545585
LINE878,0.000000,-0.312497,35.145669,3.318178,0.000000,-1.560348
LINE879,0.000000,3.859472,35.132480,3.318082,0.000000,1.557911
LINE880,0.000000,0.000000,0.000000,0.000000,0.000000,0.000000
LINE881,0.000000,2.879278,0.000000,4.500059,0.000000,1.832797
LINE882,69.850685,-0.830069,0.000000,2.275261,0.000000,4.709931
LINE883,70.323478,-0.825280,0.000000,0.127857,0.000000,4.543261
LINE884,0.000000,-0.531166,35.145669,3.318178,0.000000,4.670906
LINE885,0.000000,0.000000,35.132480,3.318082,0.000000,0.000000
LINE886,69.850685,-0.830069,0.000000,0.269215,0.000000,4.655212
LINE887,35.163879,-0.825239,0.000000,0.079833,0.000000,4.604195
LINE888,35.159599,-0.825321,0.000000,2.779905,0.000000,1.614457
LINE889,0.000000,2.610426,35.145669,3.318178,0.000000,4.676110
LINE890,69.850685,-0.830069,0.000000,-1.498596,0.000000,1.705010
LINE891,35.163879,-0.825239,0.000000,0.042417,0.000000,4.612327
LINE892,35.159599,-0.825321,0.000000,2.661527,0.000000,1.720871
LINE893,0.000000,-0.531166,35.145669,3.318178,0.000000,4.699503
LINE894,34.946508,-0.829920,0.000000,-1.286070,0.000000,4.225007
LINE895,34.904178,-0.830219,0.000000,4.415508,0.000000,1.558795
LINE896,35.163879,-0.825239,0.000000,0.037402,0.000000,4.660160
LINE897,35.159599,-0.825321,0.000000,-0.607159,0.000000,4.662661
LINE898,0.000000,0.000000,35.145669,3.318178,0.000000,0.000000
LINE899,34.946508,-0.829920,0.000000,-1.040743,0.000000,4.594233
LINE900,35.163879,-0.825239,0.000000,0.475116,0.000000,4.549642
LINE901,35.163879,-0.825239,0.000000,-0.134990,0.000000,1.444717
LINE902,35.163879,-0.825239,0.000000,-0.732732,0.000000,1.578953
LINE903,35.163879,-0.825239,0.000000,-0.499050,0.000000,1.672241
LINE904,35.163879,-0.825239,0.000000,-1.040026,0.000000,1.566460
LINE905,35.163879,-0.825239,0.000000,1.896981,0.000000,4.681860
